Version 4
SHEET 1 1028 680
WIRE 352 192 128 192
WIRE 384 192 352 192
WIRE 480 192 464 192
WIRE 480 208 480 192
WIRE 640 208 544 208
WIRE 736 208 640 208
WIRE 480 224 480 208
WIRE 480 240 480 224
WIRE 608 272 480 272
WIRE 240 304 224 304
WIRE 272 304 240 304
WIRE 336 304 320 304
WIRE 352 304 352 272
WIRE 352 304 336 304
WIRE 416 304 352 304
WIRE 432 304 416 304
WIRE 480 368 480 320
WIRE 608 368 608 272
WIRE 608 368 480 368
WIRE 480 384 480 368
FLAG 480 384 0
FLAG 128 272 0
FLAG 352 384 0
FLAG 224 384 0
FLAG 736 288 0
FLAG 416 304 inp
FLAG 480 224 drain
FLAG 640 208 output
FLAG 240 304 input
SYMBOL voltage 128 176 R0
WINDOW 123 0 0 Left 2
WINDOW 39 0 0 Left 2
SYMATTR Value2 ""
SYMATTR SpiceLine ""
SYMATTR InstName V1
SYMATTR Value 5
SYMBOL res 336 176 R0
SYMATTR InstName R3
SYMATTR Value 300
SYMATTR SpiceLine ""
SYMBOL res 336 288 R0
SYMATTR InstName R4
SYMATTR Value 200
SYMATTR SpiceLine ""
SYMBOL cmosn 432 224 R0
SYMATTR InstName M1
SYMATTR SpiceModel ""
SYMATTR Value2 l=0.3u w=3u
SYMATTR SpiceLine ""
SYMATTR SpiceLine2 ""
SYMBOL cap 336 288 R90
WINDOW 0 0 32 VBottom 2
WINDOW 3 32 32 VTop 2
SYMATTR InstName C1
SYMATTR Value 1
SYMATTR SpiceLine ""
SYMBOL voltage 224 288 R0
WINDOW 123 0 0 Left 2
WINDOW 39 0 0 Left 2
SYMATTR Value2 ""
SYMATTR SpiceLine ""
SYMATTR InstName V2
SYMATTR Value PULSE(0 4 0.5u 1n 0 10u 10000)
SYMBOL res 480 176 R90
WINDOW 0 0 56 VBottom 2
WINDOW 3 32 56 VTop 2
SYMATTR InstName R1
SYMATTR Value 500
SYMATTR SpiceLine ""
SYMBOL res 720 192 R0
SYMATTR InstName R2
SYMATTR Value 2000
SYMATTR SpiceLine ""
SYMBOL cap 480 224 R270
WINDOW 0 32 32 VTop 2
WINDOW 3 0 32 VBottom 2
SYMATTR InstName C2
SYMATTR Value 1
SYMATTR SpiceLine ""
TEXT 808 -192 Left 2 !.include level1MOS.lib
TEXT 808 -176 Left 2 !;op
TEXT 184 -8 Left 2 !.tran 0 5us 0 0.01m
