Version 4
SHEET 1 1008 680
WIRE 352 192 128 192
WIRE 384 192 352 192
WIRE 480 192 464 192
WIRE 480 208 480 192
WIRE 736 208 544 208
WIRE 480 224 480 208
WIRE 480 240 480 224
WIRE 608 272 480 272
WIRE 272 304 224 304
WIRE 336 304 320 304
WIRE 352 304 352 272
WIRE 352 304 336 304
WIRE 432 304 352 304
WIRE 480 368 480 320
WIRE 608 368 608 272
WIRE 608 368 480 368
WIRE 480 384 480 368
FLAG 480 384 0
FLAG 128 272 0
FLAG 352 384 0
FLAG 224 384 0
FLAG 736 288 0
SYMBOL voltage 128 176 R0
WINDOW 123 0 0 Left 2
WINDOW 39 0 0 Left 2
SYMATTR Value2 ""
SYMATTR SpiceLine ""
SYMATTR InstName V1
SYMATTR Value 5
SYMBOL res 336 176 R0
SYMATTR InstName R3
SYMATTR Value 150
SYMATTR SpiceLine ""
SYMBOL res 336 288 R0
SYMATTR InstName R4
SYMATTR Value 500
SYMATTR SpiceLine ""
SYMBOL cmosn 432 224 R0
SYMATTR InstName M1
SYMATTR SpiceModel ""
SYMATTR Value2 l=0.36u w=0.72u
SYMATTR SpiceLine ""
SYMATTR SpiceLine2 ""
SYMBOL cap 336 288 R90
WINDOW 0 0 32 VBottom 2
WINDOW 3 32 32 VTop 2
SYMATTR InstName C1
SYMATTR Value 1
SYMATTR SpiceLine ""
SYMBOL voltage 224 288 R0
WINDOW 123 0 0 Left 2
WINDOW 39 0 0 Left 2
SYMATTR Value2 ""
SYMATTR SpiceLine ""
SYMATTR InstName V2
SYMATTR Value SINE(0 0.005 1000)
SYMBOL res 480 176 R90
WINDOW 0 0 56 VBottom 2
WINDOW 3 32 56 VTop 2
SYMATTR InstName R1
SYMATTR Value 800
SYMATTR SpiceLine ""
SYMBOL cap 544 192 R90
WINDOW 0 0 32 VBottom 2
WINDOW 3 32 32 VTop 2
SYMATTR InstName C2
SYMATTR Value 1
SYMATTR SpiceLine ""
SYMBOL res 720 192 R0
SYMATTR InstName R2
SYMATTR Value 2000
SYMATTR SpiceLine ""
TEXT 808 -192 Left 2 !.include tsmc018.lib
TEXT 808 -176 Left 2 !.op
