Version 4
SHEET 1 880 680
WIRE 368 48 16 48
WIRE 368 96 368 48
WIRE 320 176 176 176
FLAG 16 128 0
FLAG 176 256 0
FLAG 368 192 0
FLAG 368 144 0
SYMBOL voltage 16 32 R0
WINDOW 123 0 0 Left 2
WINDOW 39 0 0 Left 2
SYMATTR InstName V1
SYMATTR Value 5
SYMATTR Value2 ""
SYMATTR SpiceLine ""
SYMBOL voltage 176 160 R0
SYMATTR InstName V2
SYMBOL cmosn 320 96 R0
SYMATTR InstName M1
SYMATTR SpiceModel ""
SYMATTR Value2 l=0.36u w=0.72u
SYMATTR SpiceLine ""
SYMATTR SpiceLine2 ""
TEXT 448 -32 Left 2 !.include tsmc018.lib
TEXT 448 -8 Left 2 !.dc V2 0 10 0.1
