Version 4
SHEET 1 880 680
WIRE 144 48 -32 48
WIRE 192 48 144 48
WIRE 288 48 192 48
WIRE 192 80 192 48
WIRE 144 96 96 96
WIRE 288 128 288 48
WIRE 288 128 192 128
WIRE 48 176 -32 176
WIRE 96 176 96 96
WIRE 96 176 48 176
WIRE 272 176 192 176
WIRE 320 176 272 176
WIRE 256 224 192 224
WIRE 96 256 96 176
WIRE 144 256 96 256
WIRE 256 272 256 224
WIRE 256 272 192 272
WIRE 320 272 320 256
WIRE 320 272 256 272
WIRE 192 304 192 272
FLAG 192 304 0
FLAG -32 128 0
FLAG -32 256 0
FLAG 144 48 Vdd
FLAG 272 176 outp
FLAG 48 176 inp
SYMBOL cmosn 144 176 R0
SYMATTR InstName M1
SYMATTR Value2 l=0.36u w=0.72u
SYMBOL cmosp 144 176 M180
SYMATTR InstName M2
SYMATTR Value2 l=0.36u w=1.44u
SYMBOL voltage -32 160 R0
WINDOW 123 0 0 Left 2
WINDOW 39 0 0 Left 2
SYMATTR InstName V1
SYMATTR Value PULSE(0.5 4.5 1us 1us 0 10us 100us)
SYMBOL voltage -32 32 R0
WINDOW 123 0 0 Left 2
WINDOW 39 0 0 Left 2
SYMATTR InstName V2
SYMATTR Value 5
SYMBOL res 304 160 R0
SYMATTR InstName R1
SYMATTR Value 100k
TEXT 352 48 Left 2 !.include level1MOS.lib
TEXT 384 112 Left 2 !.tran 0 2us 1us
