Version 4
SHEET 1 880 680
WIRE 176 96 -64 96
WIRE 240 96 176 96
WIRE -64 112 -64 96
WIRE 240 144 240 96
WIRE 240 144 176 144
WIRE 128 176 128 112
WIRE 128 176 64 176
WIRE -64 256 -64 192
WIRE 0 256 -64 256
WIRE 64 256 0 256
WIRE 0 272 0 256
FLAG 176 192 0
FLAG 0 272 0
SYMBOL voltage -64 96 R0
WINDOW 123 0 0 Left 2
WINDOW 39 0 0 Left 2
SYMATTR InstName V1
SYMATTR Value 1.8
SYMATTR Value2 ""
SYMATTR SpiceLine ""
SYMBOL voltage 64 160 R0
WINDOW 123 0 0 Left 2
WINDOW 39 0 0 Left 2
SYMATTR InstName V2
SYMATTR Value 1.2
SYMATTR Value2 ""
SYMATTR SpiceLine ""
SYMBOL cmosp 128 192 M180
SYMATTR InstName M1
SYMATTR SpiceModel ""
SYMATTR Value2 l=32u w=0.24u
SYMATTR SpiceLine ""
SYMATTR SpiceLine2 ""
TEXT 336 24 Left 2 !.include tsmc018.lib
TEXT 368 128 Left 2 !.op
