Version 4
SHEET 1 880 680
WIRE 64 96 -64 96
WIRE 176 96 64 96
WIRE 240 96 176 96
WIRE -64 112 -64 96
WIRE 240 144 240 96
WIRE 240 144 176 144
WIRE 64 176 64 96
WIRE -64 256 -64 192
WIRE 0 256 -64 256
WIRE 176 256 176 192
WIRE 0 272 0 256
WIRE 64 272 64 256
WIRE 128 272 128 112
WIRE 128 272 64 272
FLAG 0 272 0
FLAG 176 256 0
SYMBOL voltage -64 96 R0
WINDOW 123 0 0 Left 2
WINDOW 39 0 0 Left 2
WINDOW 3 24 36 Left 2
SYMATTR Value2 ""
SYMATTR SpiceLine ""
SYMATTR Value 4.78
SYMATTR InstName V1
SYMBOL voltage 64 160 R0
WINDOW 123 0 0 Left 2
WINDOW 39 0 0 Left 2
SYMATTR Value2 ""
SYMATTR SpiceLine ""
SYMATTR InstName V2
SYMATTR Value 3.8
SYMBOL cmosp 128 192 M180
SYMATTR InstName M1
SYMATTR SpiceModel ""
SYMATTR Value2 l=0.3u w=3u
SYMATTR SpiceLine ""
SYMATTR SpiceLine2 ""
TEXT 336 24 Left 2 !.include level1MOS.lib
TEXT 368 128 Left 2 !;op
TEXT 296 192 Left 2 !.dc V1 0 15 0.01
