Version 4
SHEET 1 880 680
WIRE 256 32 208 32
WIRE -80 48 -160 48
WIRE -256 112 -272 112
WIRE -80 112 -176 112
WIRE -16 112 -80 112
WIRE 128 112 128 32
WIRE 128 112 64 112
WIRE 144 112 128 112
WIRE 256 112 256 32
WIRE 256 112 208 112
WIRE 352 112 256 112
WIRE 512 112 432 112
WIRE 512 128 512 112
WIRE -272 160 -272 112
WIRE 208 160 208 128
WIRE 256 160 208 160
WIRE 352 160 256 160
WIRE 432 160 432 112
WIRE 128 176 64 176
WIRE 144 176 144 128
WIRE 144 176 128 176
WIRE -80 224 -80 192
WIRE -64 224 -80 224
WIRE -16 224 -16 176
WIRE -16 224 -64 224
WIRE 128 240 128 176
WIRE 256 240 256 160
WIRE 256 240 208 240
WIRE 512 256 512 208
WIRE -272 288 -272 240
WIRE -64 336 -64 288
WIRE -48 336 -64 336
WIRE -160 352 -160 48
WIRE -96 352 -160 352
WIRE -96 416 -96 400
WIRE -48 416 -96 416
WIRE -96 432 -96 416
WIRE -96 432 -160 432
FLAG -272 288 0
FLAG 512 256 0
FLAG -160 432 0
SYMBOL ideal_cmfb_opamp_fist 224 160 R0
SYMATTR InstName X1
SYMBOL res 80 96 R90
WINDOW 0 0 56 VBottom 0
WINDOW 3 32 56 VTop 0
SYMATTR InstName R1
SYMATTR Value 10k
SYMBOL res 224 16 R90
WINDOW 0 0 56 VBottom 0
WINDOW 3 32 56 VTop 0
SYMATTR InstName R2
SYMATTR Value 20k
SYMBOL res 80 160 R90
WINDOW 0 0 56 VBottom 0
WINDOW 3 32 56 VTop 0
SYMATTR InstName R3
SYMATTR Value 10k
SYMBOL res 224 224 R90
WINDOW 0 0 56 VBottom 0
WINDOW 3 32 56 VTop 0
SYMATTR InstName R4
SYMATTR Value 20k
SYMBOL res 448 96 R90
WINDOW 0 0 56 VBottom 0
WINDOW 3 32 56 VTop 0
SYMATTR InstName R5
SYMATTR Value 5k
SYMBOL res 448 144 R90
WINDOW 0 0 56 VBottom 0
WINDOW 3 32 56 VTop 0
SYMATTR InstName R6
SYMATTR Value 5k
SYMBOL voltage -272 144 R0
WINDOW 123 0 0 Left 0
WINDOW 39 0 0 Left 0
SYMATTR InstName V1
SYMATTR Value 0.9
SYMBOL voltage -160 336 R0
WINDOW 123 24 132 Left 0
WINDOW 39 0 0 Left 0
SYMATTR Value2 AC 0.0005
SYMATTR InstName V2
SYMATTR Value SINE()
SYMBOL e -48 320 R0
SYMATTR InstName E1
SYMATTR Value -1
SYMBOL voltage 512 112 R0
WINDOW 123 0 0 Left 0
WINDOW 39 0 0 Left 0
SYMATTR InstName V3
SYMATTR Value 0.9
SYMBOL res -160 96 R90
WINDOW 0 0 56 VBottom 0
WINDOW 3 32 56 VTop 0
SYMATTR InstName R7
SYMATTR Value 1g
SYMBOL cap -96 48 R0
SYMATTR InstName C1
SYMATTR Value 1
SYMBOL cap -80 224 R0
SYMATTR InstName C2
SYMATTR Value 1
SYMBOL res -96 96 R0
SYMATTR InstName R8
SYMATTR Value 10g
TEXT -304 464 Left 0 !.ac oct 20 10 1g
TEXT -312 488 Left 0 !.op
